 xtb: 6.7.1 (edcfbbe)
          03182614343D

  9  6  0     0  0            999 V2000
    0.0000    0.0000    0.1174 O   0  0  0  0  0  0  0  0  0  0  0  0
   -0.7570    0.0000   -0.4695 H   0  0  0  0  0  0  0  0  0  0  0  0
    0.7570    0.0000   -0.4695 H   0  0  0  0  0  0  0  0  0  0  0  0
    3.0000    0.0000    0.1174 O   0  0  0  0  0  0  0  0  0  0  0  0
    2.2430    0.0000   -0.4695 H   0  0  0  0  0  0  0  0  0  0  0  0
    3.7569    0.0000   -0.4695 H   0  0  0  0  0  0  0  0  0  0  0  0
   -3.0000    0.0000    0.1174 O   0  0  0  0  0  0  0  0  0  0  0  0
   -3.7569    0.0000   -0.4695 H   0  0  0  0  0  0  0  0  0  0  0  0
   -2.2430    0.0000   -0.4695 H   0  0  0  0  0  0  0  0  0  0  0  0
  1  2  1  0  0  0  0
  1  3  1  0  0  0  0
  4  5  1  0  0  0  0
  4  6  1  0  0  0  0
  7  8  1  0  0  0  0
  7  9  1  0  0  0  0
M  END
